*HEADING

*NODE
       1,                      -6.,        6.000000000000002,      -1.2063374999999994
       2,                      -6.,       3.9999999999999996,      -1.2063374999999994
       3,       -4.999962960394539,                       5.,       1.3394460151062288
       4,       -3.999999999999999,                       4.,      -1.2063374999999994
       5,      -4.1665908416657995,                       5.,       2.7828925425273976
       6,      -3.9999999999999982,                       6.,      -1.2063374999999994
       7,       -2.588188855715501,                       5.,       0.3404969413188179
       8,       -1.999999999999999,        2.000000000000001,      -1.2063374999999994
       9,      -1.9999999999999982,                       0.,      -1.2063374999999994
      10,                       0.,                       0.,      -1.2063374999999994
      11,                       0.,       2.0000000000000004,      -1.2063374999999994
      12,      -3.9999999999999987,        2.000000000000001,      -1.2063374999999994
      13,      -1.9999999999999987,                       4.,      -1.2063374999999994
      14,      -2.1568035064194486,                       5.,       1.9504520296155885
      15,                       0.,                       4.,      -1.2063374999999994
      16,      -1.9999999999999978,        6.000000000000003,      -1.2063374999999994
      17,                       0.,                       5.,       0.0499000000000005
      18,      -3.3332187228989767,                       5.,        4.226338386923064
      19,                       0.,        6.000000000000001,      -1.2063374999999994
      20,                      -6.,       -6.000000000000001,      -1.2063374999999994
** ... 326 like lines cut
**
** SOLID ELEMENTS
**
*ELEMENT, TYPE=C3D8R, ELSET=P8;Default PSOLID Property
       1,        9,        8,      908,      910,       30,       12,      915,      306
       2,        8,        9,     1008,      714,       12,       30,     1032,      865
       3,       12,        4,      906,      915,       70,        2,      903,      999
       4,        4,       12,      865,     1006,        2,       70,     1050,     1004
       5,       30,       12,      915,      306,       27,       70,      999,      787
       6,       12,       30,     1032,      865,       70,       27,     1005,     1050
       7,       67,       69,      985,      980,       66,       68,      981,      978
       8,       69,       67,      882,      904,       68,       66,      801,      856
       9,       66,       68,      981,      978,       63,       65,      977,      975
      10,       68,       66,      801,      856,       65,       63,      753,     1054
      11,       64,       67,      980,      976,       62,       66,      978,      974
      12,       67,       64,     1053,      882,       66,       62,     1052,      801
      13,       62,       66,      978,      974,       61,       63,      975,      973
      14,       66,       62,     1052,      801,       63,       61,     1051,      753
      15,       63,       65,      977,      975,       15,       19,      927,      920
      16,       65,       63,      753,     1054,       19,       15,     1012,     1017
      17,       60,       64,      976,      969,       58,       62,      974,      966
      18,       64,       60,     1025,     1053,       62,       58,      743,     1052
      19,       61,       63,      975,      973,       11,       15,      920,      914
      20,       63,       61,     1051,      753,       15,       11,      867,     1012
** ... 124 like lines cut
*ELEMENT, TYPE=C3D8R, ELSET=P12;Default PSOLID Property
      39,        3,        7,       14,        5,     1080,     1074,     1083,     1082
      44,        7,       17,       33,       14,     1074,     1101,     1103,     1083
      45,        5,       14,       34,       18,     1082,     1083,     1105,     1092
      47,       14,       33,       40,       34,     1083,     1103,     1085,     1105
      51,       17,       35,       41,       33,     1101,     1109,     1073,     1103
      52,       18,       34,       39,       38,     1092,     1105,     1111,     1107
      54,       34,       40,       42,       39,     1105,     1085,     1113,     1111
      56,       33,       41,       43,       40,     1103,     1073,     1116,     1085
      57,       40,       43,       48,       42,     1085,     1116,     1117,     1113
      58,       35,       45,       44,       41,     1109,     1118,     1119,     1073
      59,       41,       44,       46,       43,     1073,     1119,     1121,     1116
      60,       43,       46,       55,       48,     1116,     1121,     1124,     1117
      75,     1080,     1074,     1083,     1082,     1100,     1142,     1145,     1138
      78,     1171,     1209,     1218,     1156,     1252,     1254,     1183,     1260
      80,     1074,     1101,     1103,     1083,     1142,     1150,     1152,     1145
      82,     1207,     1216,     1221,     1209,     1120,     1258,     1196,     1254
      83,     1209,     1221,     1222,     1218,     1254,     1196,     1262,     1183
      87,     1101,     1109,     1073,     1103,     1150,     1159,     1151,     1152
      88,     1092,     1105,     1111,     1107,     1099,     1153,     1160,     1155
      90,     1105,     1085,     1113,     1111,     1153,     1076,     1161,     1160
** ... 28 like lines cut
**
** 
**
**
** RIGID BODIES
**
*RIGID BODY, REF NODE=56, ELSET=RBODY
**
** 
**
**
** SURFACE INTERACTIONS
**
**
**I1;ANONYMOUS_SURF_INTERACTION
**
*SURFACE INTERACTION, NAME=I1;ANONYMOUS_SURF_INTERACTION
*SURFACE BEHAVIOR, AUGMENTED LAGRANGE, PRESSURE-OVERCLOSURE=HARD
                        ,                       0.,                       1.
*FRICTION
                     0.1,
**
** SECTION DATA
**
*SOLID SECTION, ELSET=P8;Default PSOLID Property, MATERIAL=M2;ALUMINIUM
*SOLID SECTION, ELSET=P12;Default PSOLID Property, MATERIAL=M4;STEEL_Plastic
**
** MATERIALS
**
**
**M2;ALUMINIUM
**
*MATERIAL, NAME=M2;ALUMINIUM
*DENSITY
                   3.E-9,
*ELASTIC, TYPE=ISOTROPIC
                  69297.,                     0.35
*PLASTIC, HARDENING=ISOTROPIC
                    145.,                       0.,                      20.
                    303.,                   0.0014,                      20.
                    310.,                   0.0024,                      20.
                    313.,                   0.0037,                      20.
                    316.,                   0.0055,                      20.
                    318.,                   0.0077,                      20.
                    319.,                   0.0103,                      20.
                    321.,                   0.0132,                      20.
                    323.,                   0.0164,                      20.
                    325.,                   0.0199,                      20.
                    327.,                   0.0236,                      20.
                    330.,                   0.0276,                      20.
                    332.,                   0.0318,                      20.
                    334.,                   0.0363,                      20.
                    337.,                   0.0411,                      20.
                    339.,                   0.0462,                      20.
                    341.,                   0.0517,                      20.
                    344.,                    0.062,                      20.
                    400.,                       1.,                      20.
**
**M4;STEEL_Plastic
**
*MATERIAL, NAME=M4;STEEL_Plastic
*DENSITY
                 7.85E-9,
*ELASTIC, TYPE=ISOTROPIC
                 210000.,                      0.3
*PLASTIC, HARDENING=ISOTROPIC
                    480.,                       0.,                      20.
                    553.,                 0.002308,                      20.
                    625.,                 0.005055,                      20.
                    676.,                  0.00896,                      20.
                    709.,                 0.014308,                      20.
                    750.,                 0.020301,                      20.
                    800.,                      0.5,                      20.
**
** AMPLITUDES
**
*AMPLITUDE, NAME=A1;AMPLITUDE_00000000, DEFINITION=SMOOTH STEP, VALUE=RELATIVE, TIME=STEP TIME
                      0.,                       0.,                      0.5,                       1.,                       1.,                       0.
**
** 
**
**
** CONTACT DEFINITIONS 
**
*CONTACT
*CONTACT INCLUSIONS
S4;BODY_1, S5;BODY_2
*CONTACT PROPERTY ASSIGNMENT
S4;BODY_1, S5;BODY_2, I1;ANONYMOUS_SURF_INTERACTION
**
** SURFACE DEFINITIONS 
**
*SURFACE, NAME=S4;BODY_1, TYPE=ELEMENT
BODY_1,
*SURFACE, NAME=S5;BODY_2, TYPE=ELEMENT
BODY_2,
** 
** SETS
** 
*ELSET, ELSET=RBODY
      52,       54,       57,       60,       78,       83,       88,       90,       93,       96,
      98,      124,      126,      129,      132,      160
*ELSET, ELSET=BODY_1
P12;Default PSOLID Property,
*ELSET, ELSET=BODY_2
P8;Default PSOLID Property,
*NSET, NSET=BC_1
     222,      232,      251,      272,      289,      301,      758,      761,      763,      764,
     765,      766,      768,      770,      771,      772,      775,      776,      778,      782,
     783,      788,      789,      790,      814,      820,      823,      824,      827,      835,
     837,      838,      839,      840,      844,      848,      850,      853,      854,      858,
     860,      864,      866,      868,      870,      871,      874,      876,      898
*NSET, NSET=BC_Load
      56,
**
** BOUNDARY
**
*BOUNDARY, TYPE=DISPLACEMENT
BC_1,        1,        6,                       0.
BC_Load,        1,        2,                       0.
BC_Load,        4,        6,                       0.
**
** STEPS
**
**
** STEP 1
**
*STEP, NAME=Anonymous STEP 1, NLGEOM=YES, UNSYMM=YES
*STATIC
                    0.01,                       1.
**
** BOUNDARY
**
*BOUNDARY, TYPE=DISPLACEMENT, AMPLITUDE=A1;AMPLITUDE_00000000
BC_Load,        3,         ,                      -1.
*OUTPUT, FIELD, FREQUENCY=10
*ELEMENT OUTPUT
LE,
S,
TRIAX,
LODE,
*NODE OUTPUT, VARIABLE=PRESELECT
*END STEP
